data_Os6Pt6
_audit_creation_date              2024-04-09
_audit_creation_method            'Materials Studio'
_symmetry_space_group_name_H-M    'P1'
_symmetry_Int_Tables_number       1
_symmetry_cell_setting            triclinic
loop_
_symmetry_equiv_pos_as_xyz
  x,y,z
_cell_length_a                    11.0037
_cell_length_b                    11.1086
_cell_length_c                    24.5201
_cell_angle_alpha                 90.0000
_cell_angle_beta                  90.0000
_cell_angle_gamma                 119.6880
loop_
_atom_site_label
_atom_site_type_symbol
_atom_site_fract_x
_atom_site_fract_y
_atom_site_fract_z
_atom_site_U_iso_or_equiv
_atom_site_adp_type
_atom_site_occupancy
Os1    Os    0.00000   0.00000   0.40783   0.01267  Uiso   1.00
Os2    Os    0.25000  -0.00000   0.40783   0.01267  Uiso   1.00
Pt3    Pt    0.25000   0.25000   0.40783   0.01267  Uiso   1.00
Pt4    Pt    0.00000   0.25000   0.40783   0.01267  Uiso   1.00
Os5    Os    0.33126   0.16252   0.50000   0.01267  Uiso   1.00
Os6    Os    0.08126   0.16252   0.50000   0.01267  Uiso   1.00
Pt7    Pt    0.08126   0.41252   0.50000   0.01267  Uiso   1.00
Pt8    Pt    0.33126   0.41252   0.50000   0.01267  Uiso   1.00
Os9    Os    0.15996   0.31993   0.58807   0.01267  Uiso   1.00
Os10   Os    0.40997   0.31993   0.58807   0.01267  Uiso   1.00
Pt11   Pt    0.41452   0.07904   0.59229   0.01267  Uiso   1.00
Pt12   Pt    0.16452   0.07904   0.59229   0.01267  Uiso   1.00
Os13   Os    0.50000  -0.00000   0.40783   0.01267  Uiso   1.00
Os14   Os    0.75000  -0.00000   0.40783   0.01267  Uiso   1.00
Pt15   Pt    0.75000   0.25000   0.40783   0.01267  Uiso   1.00
Pt16   Pt    0.50000   0.25000   0.40783   0.01267  Uiso   1.00
Os17   Os    0.83126   0.16252   0.50000   0.01267  Uiso   1.00
Os18   Os    0.58126   0.16252   0.50000   0.01267  Uiso   1.00
Pt19   Pt    0.58126   0.41252   0.50000   0.01267  Uiso   1.00
Pt20   Pt    0.83126   0.41252   0.50000   0.01267  Uiso   1.00
Os21   Os    0.65996   0.31993   0.58807   0.01267  Uiso   1.00
Os22   Os    0.90997   0.31993   0.58807   0.01267  Uiso   1.00
Pt23   Pt    0.91452   0.07904   0.59229   0.01267  Uiso   1.00
Pt24   Pt    0.66452   0.07904   0.59229   0.01267  Uiso   1.00
Os25   Os    0.00000   0.50000   0.40783   0.01267  Uiso   1.00
Os26   Os    0.25000   0.50000   0.40783   0.01267  Uiso   1.00
Pt27   Pt    0.25000   0.75000   0.40783   0.01267  Uiso   1.00
Pt28   Pt    0.00000   0.75000   0.40783   0.01267  Uiso   1.00
Os29   Os    0.33126   0.66252   0.50000   0.01267  Uiso   1.00
Os30   Os    0.08126   0.66252   0.50000   0.01267  Uiso   1.00
Pt31   Pt    0.08126   0.91252   0.50000   0.01267  Uiso   1.00
Pt32   Pt    0.33126   0.91252   0.50000   0.01267  Uiso   1.00
Os33   Os    0.15996   0.81993   0.58807   0.01267  Uiso   1.00
Os34   Os    0.40997   0.81993   0.58807   0.01267  Uiso   1.00
Pt35   Pt    0.41452   0.57904   0.59229   0.01267  Uiso   1.00
Pt36   Pt    0.16452   0.57904   0.59229   0.01267  Uiso   1.00
Os37   Os    0.50000   0.50000   0.40783   0.01267  Uiso   1.00
Os38   Os    0.75000   0.50000   0.40783   0.01267  Uiso   1.00
Pt39   Pt    0.75000   0.75000   0.40783   0.01267  Uiso   1.00
Pt40   Pt    0.50000   0.75000   0.40783   0.01267  Uiso   1.00
Os41   Os    0.83126   0.66252   0.50000   0.01267  Uiso   1.00
Os42   Os    0.58126   0.66252   0.50000   0.01267  Uiso   1.00
Pt43   Pt    0.58126   0.91252   0.50000   0.01267  Uiso   1.00
Pt44   Pt    0.83126   0.91252   0.50000   0.01267  Uiso   1.00
Os45   Os    0.65996   0.81993   0.58807   0.01267  Uiso   1.00
Os46   Os    0.90997   0.81993   0.58807   0.01267  Uiso   1.00
Pt47   Pt    0.91452   0.57904   0.59229   0.01267  Uiso   1.00
Pt48   Pt    0.66452   0.57904   0.59229   0.01267  Uiso   1.00
