data_Os9Pd3
_audit_creation_date              2024-04-09
_audit_creation_method            'Materials Studio'
_symmetry_space_group_name_H-M    'P1'
_symmetry_Int_Tables_number       1
_symmetry_cell_setting            triclinic
loop_
_symmetry_equiv_pos_as_xyz
  x,y,z
_cell_length_a                    10.9613
_cell_length_b                    10.9613
_cell_length_c                    24.4749
_cell_angle_alpha                 90.0000
_cell_angle_beta                  90.0000
_cell_angle_gamma                 120.0000
loop_
_atom_site_label
_atom_site_type_symbol
_atom_site_fract_x
_atom_site_fract_y
_atom_site_fract_z
_atom_site_U_iso_or_equiv
_atom_site_adp_type
_atom_site_occupancy
Os1    Os    0.00000   0.00000   0.40858   0.01267  Uiso   1.00
Os2    Os    0.00000   0.25000   0.40858   0.01267  Uiso   1.00
Os3    Os    0.25000   0.25000   0.40858   0.01267  Uiso   1.00
Pd4    Pd    0.25000   0.00000   0.40858   0.01267  Uiso   1.00
Os5    Os    0.33334   0.16666   0.50000   0.01267  Uiso   1.00
Os6    Os    0.33334   0.41666   0.50000   0.01267  Uiso   1.00
Os7    Os    0.08333   0.41667   0.50000   0.01267  Uiso   1.00
Pd8    Pd    0.08333   0.16667   0.50000   0.01267  Uiso   1.00
Os9    Os    0.17129   0.34256   0.58769   0.01267  Uiso   1.00
Os10   Os    0.17128   0.07871   0.58769   0.01267  Uiso   1.00
Os11   Os    0.40744   0.07871   0.58769   0.01267  Uiso   1.00
Pd12   Pd    0.41667   0.33333   0.59116   0.01267  Uiso   1.00
Os13   Os    0.50000  -0.00000   0.40858   0.01267  Uiso   1.00
Os14   Os    0.50000   0.25000   0.40858   0.01267  Uiso   1.00
Os15   Os    0.75000   0.25000   0.40858   0.01267  Uiso   1.00
Pd16   Pd    0.75000  -0.00000   0.40858   0.01267  Uiso   1.00
Os17   Os    0.83334   0.16666   0.50000   0.01267  Uiso   1.00
Os18   Os    0.83334   0.41666   0.50000   0.01267  Uiso   1.00
Os19   Os    0.58333   0.41667   0.50000   0.01267  Uiso   1.00
Pd20   Pd    0.58333   0.16667   0.50000   0.01267  Uiso   1.00
Os21   Os    0.67129   0.34256   0.58769   0.01267  Uiso   1.00
Os22   Os    0.67128   0.07871   0.58769   0.01267  Uiso   1.00
Os23   Os    0.90744   0.07871   0.58769   0.01267  Uiso   1.00
Pd24   Pd    0.91667   0.33333   0.59116   0.01267  Uiso   1.00
Os25   Os    0.00000   0.50000   0.40858   0.01267  Uiso   1.00
Os26   Os    0.00000   0.75000   0.40858   0.01267  Uiso   1.00
Os27   Os    0.25000   0.75000   0.40858   0.01267  Uiso   1.00
Pd28   Pd    0.25000   0.50000   0.40858   0.01267  Uiso   1.00
Os29   Os    0.33334   0.66667   0.50000   0.01267  Uiso   1.00
Os30   Os    0.33334   0.91666   0.50000   0.01267  Uiso   1.00
Os31   Os    0.08333   0.91667   0.50000   0.01267  Uiso   1.00
Pd32   Pd    0.08333   0.66667   0.50000   0.01267  Uiso   1.00
Os33   Os    0.17129   0.84256   0.58769   0.01267  Uiso   1.00
Os34   Os    0.17128   0.57871   0.58769   0.01267  Uiso   1.00
Os35   Os    0.40744   0.57871   0.58769   0.01267  Uiso   1.00
Pd36   Pd    0.41667   0.83333   0.59116   0.01267  Uiso   1.00
Os37   Os    0.50000   0.50000   0.40858   0.01267  Uiso   1.00
Os38   Os    0.50000   0.75000   0.40858   0.01267  Uiso   1.00
Os39   Os    0.75000   0.75000   0.40858   0.01267  Uiso   1.00
Pd40   Pd    0.75000   0.50000   0.40858   0.01267  Uiso   1.00
Os41   Os    0.83334   0.66666   0.50000   0.01267  Uiso   1.00
Os42   Os    0.83334   0.91666   0.50000   0.01267  Uiso   1.00
Os43   Os    0.58333   0.91667   0.50000   0.01267  Uiso   1.00
Pd44   Pd    0.58333   0.66667   0.50000   0.01267  Uiso   1.00
Os45   Os    0.67129   0.84256   0.58769   0.01267  Uiso   1.00
Os46   Os    0.67128   0.57871   0.58769   0.01267  Uiso   1.00
Os47   Os    0.90744   0.57871   0.58769   0.01267  Uiso   1.00
Pd48   Pd    0.91667   0.83333   0.59116   0.01267  Uiso   1.00
