data_PdPd12
_audit_creation_date              2024-04-04
_audit_creation_method            'Materials Studio'
_symmetry_space_group_name_H-M    'P1'
_symmetry_Int_Tables_number       1
_symmetry_cell_setting            triclinic
loop_
_symmetry_equiv_pos_as_xyz
  x,y,z
_cell_length_a                    11.2753
_cell_length_b                    11.2753
_cell_length_c                    24.6031
_cell_angle_alpha                 90.0000
_cell_angle_beta                  90.0000
_cell_angle_gamma                 60.0000
loop_
_atom_site_label
_atom_site_type_symbol
_atom_site_fract_x
_atom_site_fract_y
_atom_site_fract_z
_atom_site_U_iso_or_equiv
_atom_site_adp_type
_atom_site_occupancy
Pd1    Pd    0.08333   0.08334   0.40645   0.01267  Uiso   1.00
Pd2    Pd    0.33334   0.08333   0.40645   0.01267  Uiso   1.00
Pd3    Pd    0.08333   0.33334   0.40645   0.01267  Uiso   1.00
Pd4    Pd    0.33334   0.33334   0.40645   0.01267  Uiso   1.00
Pd5    Pd    0.41667   0.16667   0.50000   0.01267  Uiso   1.00
Pd6    Pd    0.16667   0.16667   0.50000   0.01267  Uiso   1.00
Pd7    Pd    0.41667   0.41666   0.50000   0.01267  Uiso   1.00
Pd8    Pd    0.16667   0.41666   0.50000   0.01267  Uiso   1.00
Pd9    Pd    0.00000   0.00000   0.59355   0.01267  Uiso   1.00
Pd10   Pd    0.25000   0.00000   0.59355   0.01267  Uiso   1.00
Pd11   Pd    0.00000   0.25000   0.59355   0.01267  Uiso   1.00
Pd12   Pd    0.25000   0.25000   0.59355   0.01267  Uiso   1.00
Pd13   Pd    0.58333   0.08334   0.40645   0.01267  Uiso   1.00
Pd14   Pd    0.83333   0.08333   0.40645   0.01267  Uiso   1.00
Pd15   Pd    0.58333   0.33333   0.40645   0.01267  Uiso   1.00
Pd16   Pd    0.83333   0.33334   0.40645   0.01267  Uiso   1.00
Pd17   Pd    0.91667   0.16667   0.50000   0.01267  Uiso   1.00
Pd18   Pd    0.66666   0.16667   0.50000   0.01267  Uiso   1.00
Pd19   Pd    0.91667   0.41666   0.50000   0.01267  Uiso   1.00
Pd20   Pd    0.66666   0.41667   0.50000   0.01267  Uiso   1.00
Pd21   Pd    0.50000   0.00000   0.59355   0.01267  Uiso   1.00
Pd22   Pd    0.75000  -0.00000   0.59355   0.01267  Uiso   1.00
Pd23   Pd    0.50000   0.25000   0.59355   0.01267  Uiso   1.00
Pd24   Pd    0.75000   0.25000   0.59355   0.01267  Uiso   1.00
Pd25   Pd    0.08333   0.58334   0.40645   0.01267  Uiso   1.00
Pd26   Pd    0.33334   0.58334   0.40645   0.01267  Uiso   1.00
Pd27   Pd    0.08333   0.83334   0.40645   0.01267  Uiso   1.00
Pd28   Pd    0.33334   0.83334   0.40645   0.01267  Uiso   1.00
Pd29   Pd    0.41667   0.66666   0.50000   0.01267  Uiso   1.00
Pd30   Pd    0.16667   0.66667   0.50000   0.01267  Uiso   1.00
Pd31   Pd    0.41667   0.91666   0.50000   0.01267  Uiso   1.00
Pd32   Pd    0.16667   0.91666   0.50000   0.01267  Uiso   1.00
Pd33   Pd    0.00000   0.50000   0.59355   0.01267  Uiso   1.00
Pd34   Pd    0.25000   0.50000   0.59355   0.01267  Uiso   1.00
Pd35   Pd    0.00000   0.75000   0.59355   0.01267  Uiso   1.00
Pd36   Pd    0.25000   0.75000   0.59355   0.01267  Uiso   1.00
Pd37   Pd    0.58333   0.58334   0.40645   0.01267  Uiso   1.00
Pd38   Pd    0.83333   0.58333   0.40645   0.01267  Uiso   1.00
Pd39   Pd    0.58333   0.83334   0.40645   0.01267  Uiso   1.00
Pd40   Pd    0.83333   0.83334   0.40645   0.01267  Uiso   1.00
Pd41   Pd    0.91667   0.66667   0.50000   0.01267  Uiso   1.00
Pd42   Pd    0.66666   0.66667   0.50000   0.01267  Uiso   1.00
Pd43   Pd    0.91667   0.91666   0.50000   0.01267  Uiso   1.00
Pd44   Pd    0.66666   0.91667   0.50000   0.01267  Uiso   1.00
Pd45   Pd    0.50000   0.50000   0.59355   0.01267  Uiso   1.00
Pd46   Pd    0.75000   0.50000   0.59355   0.01267  Uiso   1.00
Pd47   Pd    0.50000   0.75000   0.59355   0.01267  Uiso   1.00
Pd48   Pd    0.75000   0.75000   0.59355   0.01267  Uiso   1.00
