data_Ir3Pt9
_audit_creation_date              2024-04-09
_audit_creation_method            'Materials Studio'
_symmetry_space_group_name_H-M    'P1'
_symmetry_Int_Tables_number       1
_symmetry_cell_setting            triclinic
loop_
_symmetry_equiv_pos_as_xyz
  x,y,z
_cell_length_a                    11.1939
_cell_length_b                    11.1939
_cell_length_c                    24.5699
_cell_angle_alpha                 90.0000
_cell_angle_beta                  90.0000
_cell_angle_gamma                 120.0000
loop_
_atom_site_label
_atom_site_type_symbol
_atom_site_fract_x
_atom_site_fract_y
_atom_site_fract_z
_atom_site_U_iso_or_equiv
_atom_site_adp_type
_atom_site_occupancy
Pt1    Pt    0.00000   0.00000   0.40700   0.01267  Uiso   1.00
Pt2    Pt    0.00000   0.25000   0.40700   0.01267  Uiso   1.00
Pt3    Pt    0.25000   0.25000   0.40700   0.01267  Uiso   1.00
Ir4    Ir    0.25000   0.00000   0.40700   0.01267  Uiso   1.00
Pt5    Pt    0.33334   0.16666   0.50000   0.01267  Uiso   1.00
Pt6    Pt    0.33334   0.41666   0.50000   0.01267  Uiso   1.00
Pt7    Pt    0.08334   0.41666   0.50000   0.01267  Uiso   1.00
Ir8    Ir    0.08334   0.16666   0.50000   0.01267  Uiso   1.00
Pt9    Pt    0.16609   0.33218   0.59427   0.01267  Uiso   1.00
Pt10   Pt    0.16609   0.08391   0.59427   0.01267  Uiso   1.00
Pt11   Pt    0.41783   0.08392   0.59427   0.01267  Uiso   1.00
Ir12   Ir    0.41666   0.33333   0.58963   0.01267  Uiso   1.00
Pt13   Pt    0.50000   0.00000   0.40700   0.01267  Uiso   1.00
Pt14   Pt    0.50000   0.25000   0.40700   0.01267  Uiso   1.00
Pt15   Pt    0.75000   0.25000   0.40700   0.01267  Uiso   1.00
Ir16   Ir    0.75000  -0.00000   0.40700   0.01267  Uiso   1.00
Pt17   Pt    0.83334   0.16666   0.50000   0.01267  Uiso   1.00
Pt18   Pt    0.83334   0.41666   0.50000   0.01267  Uiso   1.00
Pt19   Pt    0.58334   0.41666   0.50000   0.01267  Uiso   1.00
Ir20   Ir    0.58334   0.16666   0.50000   0.01267  Uiso   1.00
Pt21   Pt    0.66609   0.33217   0.59427   0.01267  Uiso   1.00
Pt22   Pt    0.66609   0.08391   0.59427   0.01267  Uiso   1.00
Pt23   Pt    0.91783   0.08392   0.59427   0.01267  Uiso   1.00
Ir24   Ir    0.91666   0.33333   0.58963   0.01267  Uiso   1.00
Pt25   Pt    0.00000   0.50000   0.40700   0.01267  Uiso   1.00
Pt26   Pt    0.00000   0.75000   0.40700   0.01267  Uiso   1.00
Pt27   Pt    0.25000   0.75000   0.40700   0.01267  Uiso   1.00
Ir28   Ir    0.25000   0.50000   0.40700   0.01267  Uiso   1.00
Pt29   Pt    0.33334   0.66666   0.50000   0.01267  Uiso   1.00
Pt30   Pt    0.33334   0.91666   0.50000   0.01267  Uiso   1.00
Pt31   Pt    0.08334   0.91666   0.50000   0.01267  Uiso   1.00
Ir32   Ir    0.08334   0.66666   0.50000   0.01267  Uiso   1.00
Pt33   Pt    0.16609   0.83217   0.59427   0.01267  Uiso   1.00
Pt34   Pt    0.16609   0.58391   0.59427   0.01267  Uiso   1.00
Pt35   Pt    0.41783   0.58391   0.59427   0.01267  Uiso   1.00
Ir36   Ir    0.41666   0.83333   0.58963   0.01267  Uiso   1.00
Pt37   Pt    0.50000   0.50000   0.40700   0.01267  Uiso   1.00
Pt38   Pt    0.50000   0.75000   0.40700   0.01267  Uiso   1.00
Pt39   Pt    0.75000   0.75000   0.40700   0.01267  Uiso   1.00
Ir40   Ir    0.75000   0.50000   0.40700   0.01267  Uiso   1.00
Pt41   Pt    0.83334   0.66666   0.50000   0.01267  Uiso   1.00
Pt42   Pt    0.83334   0.91666   0.50000   0.01267  Uiso   1.00
Pt43   Pt    0.58334   0.91666   0.50000   0.01267  Uiso   1.00
Ir44   Ir    0.58334   0.66666   0.50000   0.01267  Uiso   1.00
Pt45   Pt    0.66609   0.83217   0.59427   0.01267  Uiso   1.00
Pt46   Pt    0.66609   0.58391   0.59427   0.01267  Uiso   1.00
Pt47   Pt    0.91783   0.58391   0.59427   0.01267  Uiso   1.00
Ir48   Ir    0.91666   0.83333   0.58963   0.01267  Uiso   1.00
